<?xml version="1.0" encoding="UTF-8"?>

<!-- generated on 2026-05-01 14:48:00.041496 by Eclipse SUMO randomTrips.py v1_26_0+0000-fa7df22d7f1
<configuration>
    <net-file value="map.net.xml"/>
    <route-file value="car.rou.xml"/>
    <random value="True"/>
    <end value="200.0"/>
    <period value="2.0"/>
</configuration>
-->

<!-- generated on 2026-05-01T14:47:59.970612+09:00 by Eclipse SUMO duarouter 1.26.0
<duarouterConfiguration xmlns:xsi="http://www.w3.org/2001/XMLSchema-instance" xsi:noNamespaceSchemaLocation="http://sumo.dlr.de/xsd/duarouterConfiguration.xsd">

    <input>
        <net-file value="map.net.xml"/>
        <route-files value="trips.trips.xml"/>
    </input>

    <output>
        <output-file value="car.rou.xml"/>
        <alternatives-output value="NUL"/>
    </output>

    <time>
        <begin value="0.0"/>
        <end value="200.0"/>
    </time>

    <report>
        <no-warnings value="true"/>
        <ignore-errors value="true"/>
        <no-step-log value="true"/>
    </report>

</duarouterConfiguration>
-->

<routes xmlns:xsi="http://www.w3.org/2001/XMLSchema-instance" xsi:noNamespaceSchemaLocation="http://sumo.dlr.de/xsd/routes_file.xsd">
    <vehicle id="0" depart="0.00">
        <route edges="-E6 -E3 E2 E8"/>
    </vehicle>
    <vehicle id="1" depart="2.00">
        <route edges="-E22 E0 E1 E7 E20"/>
    </vehicle>
    <vehicle id="2" depart="4.00">
        <route edges="-E8 -E2 E3"/>
    </vehicle>
    <vehicle id="3" depart="6.00">
        <route edges="-E19 -E3"/>
    </vehicle>
    <vehicle id="4" depart="8.00">
        <route edges="-E13 E10 E11 -E1"/>
    </vehicle>
    <vehicle id="5" depart="10.00">
        <route edges="E10 E11 E7 -E6 -E5 -E4"/>
    </vehicle>
    <vehicle id="6" depart="12.00">
        <route edges="-E15 -E10 E8 E9 E4"/>
    </vehicle>
    <vehicle id="7" depart="14.00">
        <route edges="E9 E4 E5 E6 E17"/>
    </vehicle>
    <vehicle id="8" depart="16.00">
        <route edges="-E15 E11 -E1 E2"/>
    </vehicle>
    <vehicle id="9" depart="18.00">
        <route edges="E0"/>
    </vehicle>
    <vehicle id="10" depart="20.00">
        <route edges="-E19 E6 -E7 -E11 E14"/>
    </vehicle>
    <vehicle id="11" depart="22.00">
        <route edges="-E16 -E11 E15"/>
    </vehicle>
    <vehicle id="12" depart="24.00">
        <route edges="-E19 -E3 E2 E13"/>
    </vehicle>
    <vehicle id="13" depart="26.00">
        <route edges="E0 E1 -E11"/>
    </vehicle>
    <vehicle id="14" depart="28.00">
        <route edges="E7 E20"/>
    </vehicle>
    <vehicle id="15" depart="30.00">
        <route edges="-E18 -E4 E0 E2 E13"/>
    </vehicle>
    <vehicle id="16" depart="32.00">
        <route edges="-E12 E9 E4 E5 E6 E20"/>
    </vehicle>
    <vehicle id="17" depart="34.00">
        <route edges="-E8 -E2 -E0 -E9"/>
    </vehicle>
    <vehicle id="18" depart="36.00">
        <route edges="-E6"/>
    </vehicle>
    <vehicle id="19" depart="38.00">
        <route edges="-E2 E3 -E5 -E4"/>
    </vehicle>
    <vehicle id="20" depart="40.00">
        <route edges="-E0 -E9 -E8 E13"/>
    </vehicle>
    <vehicle id="21" depart="42.00">
        <route edges="-E20 -E7"/>
    </vehicle>
    <vehicle id="22" depart="44.00">
        <route edges="-E19 -E5 -E4"/>
    </vehicle>
    <vehicle id="23" depart="46.00">
        <route edges="-E5 -E4 -E9 -E8 -E2"/>
    </vehicle>
    <vehicle id="24" depart="48.00">
        <route edges="-E22 -E9 -E8 -E2"/>
    </vehicle>
    <vehicle id="25" depart="50.00">
        <route edges="-E8 E10 E11 -E1 E2 E8 E9"/>
    </vehicle>
    <vehicle id="26" depart="52.00">
        <route edges="-E14 -E10"/>
    </vehicle>
    <vehicle id="27" depart="54.00">
        <route edges="-E2 E1 E7 -E6 -E3"/>
    </vehicle>
    <vehicle id="28" depart="56.00">
        <route edges="-E15 E11 -E1 E2"/>
    </vehicle>
    <vehicle id="29" depart="58.00">
        <route edges="-E8 -E2 -E0 E4"/>
    </vehicle>
    <vehicle id="30" depart="60.00">
        <route edges="-E13 -E2 E1 E7 -E6 -E3"/>
    </vehicle>
    <vehicle id="31" depart="62.00">
        <route edges="-E21 -E4 -E9"/>
    </vehicle>
    <vehicle id="32" depart="64.00">
        <route edges="E10 E11 -E1 E2 E8"/>
    </vehicle>
    <vehicle id="33" depart="66.00">
        <route edges="E4 E5 E6 -E7 -E11 E14"/>
    </vehicle>
    <vehicle id="34" depart="68.00">
        <route edges="E6 -E7 -E1 E2"/>
    </vehicle>
    <vehicle id="35" depart="70.00">
        <route edges="-E2 E3 E6 -E7 -E1"/>
    </vehicle>
    <vehicle id="36" depart="72.00">
        <route edges="-E12 E9 E0"/>
    </vehicle>
    <vehicle id="37" depart="74.00">
        <route edges="-E4 E0 E3 -E5"/>
    </vehicle>
    <vehicle id="38" depart="76.00">
        <route edges="E3 E6 -E7 -E1"/>
    </vehicle>
    <vehicle id="39" depart="78.00">
        <route edges="-E14 -E10 E8"/>
    </vehicle>
    <vehicle id="40" depart="80.00">
        <route edges="E0 E3 -E5"/>
    </vehicle>
    <vehicle id="41" depart="82.00">
        <route edges="E6 -E7 -E1 -E0 -E9 E12"/>
    </vehicle>
    <vehicle id="42" depart="84.00">
        <route edges="-E5 E18"/>
    </vehicle>
    <vehicle id="43" depart="86.00">
        <route edges="E0 E2 E8 E12"/>
    </vehicle>
    <vehicle id="44" depart="88.00">
        <route edges="-E20 -E7 -E11 E15"/>
    </vehicle>
    <vehicle id="45" depart="90.00">
        <route edges="E3"/>
    </vehicle>
    <vehicle id="46" depart="92.00">
        <route edges="E9 E4 E5 E6 -E7 -E1"/>
    </vehicle>
    <vehicle id="47" depart="94.00">
        <route edges="E4 E5 -E3 E2 E8 E23"/>
    </vehicle>
    <vehicle id="48" depart="96.00">
        <route edges="-E8 -E2 E1 E16"/>
    </vehicle>
    <vehicle id="49" depart="98.00">
        <route edges="-E9 -E8 -E2 E3 -E5 -E4"/>
    </vehicle>
    <vehicle id="50" depart="100.00">
        <route edges="-E2 E3 E19"/>
    </vehicle>
    <vehicle id="51" depart="102.00">
        <route edges="-E18 -E4 E0 E2"/>
    </vehicle>
    <vehicle id="52" depart="104.00">
        <route edges="E9 E0 E2 E8 E23"/>
    </vehicle>
    <vehicle id="53" depart="106.00">
        <route edges="-E9 -E8 E13"/>
    </vehicle>
    <vehicle id="54" depart="108.00">
        <route edges="-E11 -E10 -E2 -E0 -E9 -E8 E10 E11"/>
    </vehicle>
    <vehicle id="55" depart="110.00">
        <route edges="E9 E4 E5 E6"/>
    </vehicle>
    <vehicle id="56" depart="112.00">
        <route edges="-E22 E0 E1 -E11 -E10"/>
    </vehicle>
    <vehicle id="57" depart="114.00">
        <route edges="E8 E9 E4"/>
    </vehicle>
    <vehicle id="58" depart="116.00">
        <route edges="E8 E9"/>
    </vehicle>
    <vehicle id="59" depart="118.00">
        <route edges="-E9 -E8 -E2 E3 -E5 -E4"/>
    </vehicle>
    <vehicle id="60" depart="120.00">
        <route edges="-E21 E5"/>
    </vehicle>
    <vehicle id="61" depart="122.00">
        <route edges="-E13 -E2 E3 E19"/>
    </vehicle>
    <vehicle id="62" depart="124.00">
        <route edges="-E9 -E8 E10 E11 E7"/>
    </vehicle>
    <vehicle id="63" depart="126.00">
        <route edges="-E0 -E9 -E8 E10 E11 E7 -E6"/>
    </vehicle>
    <vehicle id="64" depart="128.00">
        <route edges="-E19 E6 E17"/>
    </vehicle>
    <vehicle id="65" depart="130.00">
        <route edges="-E13 E8 E9 E0"/>
    </vehicle>
    <vehicle id="66" depart="132.00">
        <route edges="-E23 E9 E22"/>
    </vehicle>
    <vehicle id="67" depart="134.00">
        <route edges="-E9 E23"/>
    </vehicle>
    <vehicle id="68" depart="136.00">
        <route edges="-E18 -E4 E0 E1 E7 -E6"/>
    </vehicle>
    <vehicle id="69" depart="138.00">
        <route edges="-E23 -E8 -E2 -E0 -E9 E23"/>
    </vehicle>
    <vehicle id="70" depart="140.00">
        <route edges="-E4 E0 E3 -E5 E18"/>
    </vehicle>
    <vehicle id="71" depart="142.00">
        <route edges="E8 E9 E22"/>
    </vehicle>
    <vehicle id="72" depart="144.00">
        <route edges="E0 E1 E7 -E6"/>
    </vehicle>
    <vehicle id="73" depart="146.00">
        <route edges="-E16 -E1 -E0 -E9 E12"/>
    </vehicle>
    <vehicle id="74" depart="148.00">
        <route edges="-E10 -E2 -E0 -E9 -E8 E10 E11"/>
    </vehicle>
    <vehicle id="75" depart="150.00">
        <route edges="-E23 -E8 -E2 -E0 -E9"/>
    </vehicle>
    <vehicle id="76" depart="152.00">
        <route edges="-E8 -E2 E3 -E5 -E4"/>
    </vehicle>
    <vehicle id="77" depart="154.00">
        <route edges="E3 E6 -E7 -E1 -E0 E4 E5"/>
    </vehicle>
    <vehicle id="78" depart="156.00">
        <route edges="-E21 E5 -E3 E2 E13"/>
    </vehicle>
    <vehicle id="79" depart="158.00">
        <route edges="E7 -E6 -E3 E1 E16"/>
    </vehicle>
    <vehicle id="80" depart="160.00">
        <route edges="-E20 -E6 -E3 E1 E7"/>
    </vehicle>
    <vehicle id="81" depart="162.00">
        <route edges="E7 -E6 -E5 -E4 -E9"/>
    </vehicle>
    <vehicle id="82" depart="164.00">
        <route edges="E2 E10 E11 -E1 -E0"/>
    </vehicle>
    <vehicle id="83" depart="166.00">
        <route edges="-E9"/>
    </vehicle>
    <vehicle id="84" depart="168.00">
        <route edges="-E15 E11 -E1 E2 E10 E15"/>
    </vehicle>
    <vehicle id="85" depart="170.00">
        <route edges="-E20 -E7 -E1 -E0"/>
    </vehicle>
    <vehicle id="86" depart="172.00">
        <route edges="-E5 -E4 E0 E1 E7 -E6"/>
    </vehicle>
    <vehicle id="87" depart="174.00">
        <route edges="E9 E0 E2 E8"/>
    </vehicle>
    <vehicle id="88" depart="176.00">
        <route edges="-E8 E10 E11 -E1 E2 E8"/>
    </vehicle>
    <vehicle id="89" depart="178.00">
        <route edges="-E9 -E8 -E2 E1 E16"/>
    </vehicle>
    <vehicle id="90" depart="180.00">
        <route edges="-E9 -E8 -E2 E3 -E5"/>
    </vehicle>
    <vehicle id="91" depart="182.00">
        <route edges="-E19 -E3 E1 E7 -E6"/>
    </vehicle>
    <vehicle id="92" depart="184.00">
        <route edges="-E2 E3 -E5 -E4 E0"/>
    </vehicle>
    <vehicle id="93" depart="186.00">
        <route edges="E7 -E6 -E5 -E4 -E9 E23"/>
    </vehicle>
    <vehicle id="94" depart="188.00">
        <route edges="-E19 E6 -E7 -E11 E14"/>
    </vehicle>
    <vehicle id="95" depart="190.00">
        <route edges="-E5 -E4 -E9"/>
    </vehicle>
    <vehicle id="96" depart="192.00">
        <route edges="-E2 -E0 -E9 -E8 E10 E11"/>
    </vehicle>
    <vehicle id="97" depart="194.00">
        <route edges="-E5 -E4 E0 E2 E13"/>
    </vehicle>
    <vehicle id="98" depart="196.00">
        <route edges="-E11 -E10 -E2 E3 E6 E17"/>
    </vehicle>
    <vehicle id="99" depart="198.00">
        <route edges="E0 E2 E13"/>
    </vehicle>
</routes>
