<?xml version="1.0" encoding="UTF-8"?>

<!-- generated on 2026-04-17T15:39:11.864128+09:00 by Eclipse SUMO netedit 1.26.0
<neteditConfiguration xmlns:xsi="http://www.w3.org/2001/XMLSchema-instance" xsi:noNamespaceSchemaLocation="http://sumo.dlr.de/xsd/neteditConfiguration.xsd">

    <input>
        <sumo-net-file value="C:\Users\GLAB-PC002\Desktop\sumo_project\map.net.xml"/>
    </input>

    <output>
        <output-file value="C:\Users\GLAB-PC002\Desktop\sumo_project\map.net.xml"/>
    </output>

    <processing>
        <offset.disable-normalization value="true"/>
    </processing>

    <junctions>
        <no-turnarounds value="true"/>
    </junctions>

    <netedit>
        <new-network value="false"/>
    </netedit>

</neteditConfiguration>
-->

<net version="1.20" junctionCornerDetail="5" limitTurnSpeed="5.50" xmlns:xsi="http://www.w3.org/2001/XMLSchema-instance" xsi:noNamespaceSchemaLocation="http://sumo.dlr.de/xsd/net_file.xsd">

    <location netOffset="0.00,0.00" convBoundary="-33.32,-63.67,214.94,103.40" origBoundary="10000000000.00,10000000000.00,-10000000000.00,-10000000000.00" projParameter="!"/>

    <edge id=":J0_0" function="internal">
        <lane id=":J0_0_0" index="0" speed="6.52" length="9.12" shape="10.87,17.68 10.44,15.19 9.34,13.44 7.55,12.43 5.09,12.17"/>
    </edge>
    <edge id=":J0_1" function="internal">
        <lane id=":J0_1_0" index="0" speed="13.89" length="14.53" shape="10.87,17.68 10.35,3.15"/>
    </edge>
    <edge id=":J0_2" function="internal">
        <lane id=":J0_2_0" index="0" speed="7.92" length="3.96" shape="10.87,17.68 11.31,13.74"/>
    </edge>
    <edge id=":J0_12" function="internal">
        <lane id=":J0_12_0" index="0" speed="7.92" length="10.40" shape="11.31,13.74 12.92,10.95 15.69,9.30 19.62,8.80"/>
    </edge>
    <edge id=":J0_3" function="internal">
        <lane id=":J0_3_0" index="0" speed="6.41" length="9.04" shape="19.57,12.00 17.10,12.32 15.36,13.35 14.35,15.11 14.06,17.58"/>
    </edge>
    <edge id=":J0_4" function="internal">
        <lane id=":J0_4_0" index="0" speed="13.89" length="14.48" shape="19.57,12.00 5.09,12.17"/>
    </edge>
    <edge id=":J0_5" function="internal">
        <lane id=":J0_5_0" index="0" speed="8.22" length="3.94" shape="19.57,12.00 15.67,11.40"/>
    </edge>
    <edge id=":J0_13" function="internal">
        <lane id=":J0_13_0" index="0" speed="8.22" length="10.45" shape="15.67,11.40 12.84,9.72 11.06,6.97 10.35,3.15"/>
    </edge>
    <edge id=":J0_6" function="internal">
        <lane id=":J0_6_0" index="0" speed="6.77" length="9.44" shape="13.55,3.02 14.02,5.52 15.19,7.31 17.05,8.41 19.62,8.80"/>
    </edge>
    <edge id=":J0_7" function="internal">
        <lane id=":J0_7_0" index="0" speed="13.89" length="14.57" shape="13.55,3.02 14.06,17.58"/>
    </edge>
    <edge id=":J0_8" function="internal">
        <lane id=":J0_8_0" index="0" speed="8.00" length="4.11" shape="13.55,3.02 13.16,6.89 13.05,7.09"/>
    </edge>
    <edge id=":J0_14" function="internal">
        <lane id=":J0_14_0" index="0" speed="8.00" length="10.11" shape="13.05,7.09 11.62,9.71 8.93,11.47 5.09,12.17"/>
    </edge>
    <edge id=":J0_9" function="internal">
        <lane id=":J0_9_0" index="0" speed="6.51" length="9.05" shape="4.96,8.97 7.41,8.52 9.12,7.41 10.10,5.62 10.35,3.15"/>
    </edge>
    <edge id=":J0_10" function="internal">
        <lane id=":J0_10_0" index="0" speed="13.89" length="14.65" shape="4.96,8.97 19.62,8.80"/>
    </edge>
    <edge id=":J0_11" function="internal">
        <lane id=":J0_11_0" index="0" speed="8.01" length="4.26" shape="4.96,8.97 8.85,9.38 9.16,9.56"/>
    </edge>
    <edge id=":J0_15" function="internal">
        <lane id=":J0_15_0" index="0" speed="8.01" length="10.06" shape="9.16,9.56 11.66,10.95 13.40,13.69 14.06,17.58"/>
    </edge>
    <edge id=":J1_0" function="internal">
        <lane id=":J1_0_0" index="0" speed="6.61" length="9.19" shape="85.32,18.56 84.95,16.11 83.86,14.35 82.06,13.28 79.55,12.89"/>
    </edge>
    <edge id=":J1_1" function="internal">
        <lane id=":J1_1_0" index="0" speed="13.89" length="14.44" shape="85.32,18.56 85.14,4.12"/>
    </edge>
    <edge id=":J1_2" function="internal">
        <lane id=":J1_2_0" index="0" speed="8.04" length="4.00" shape="85.32,18.56 85.85,14.73 85.92,14.62"/>
    </edge>
    <edge id=":J1_12" function="internal">
        <lane id=":J1_12_0" index="0" speed="8.04" length="10.18" shape="85.92,14.62 87.48,11.97 90.21,10.28 94.05,9.65"/>
    </edge>
    <edge id=":J1_3" function="internal">
        <lane id=":J1_3_0" index="0" speed="6.55" length="9.07" shape="94.11,12.85 91.66,13.25 89.90,14.33 88.86,16.10 88.52,18.54"/>
    </edge>
    <edge id=":J1_4" function="internal">
        <lane id=":J1_4_0" index="0" speed="13.89" length="14.57" shape="94.11,12.85 79.55,12.89"/>
    </edge>
    <edge id=":J1_5" function="internal">
        <lane id=":J1_5_0" index="0" speed="8.02" length="4.19" shape="94.11,12.85 90.25,12.37 90.00,12.23"/>
    </edge>
    <edge id=":J1_13" function="internal">
        <lane id=":J1_13_0" index="0" speed="8.02" length="10.10" shape="90.00,12.23 87.47,10.76 85.76,8.01 85.14,4.12"/>
    </edge>
    <edge id=":J1_6" function="internal">
        <lane id=":J1_6_0" index="0" speed="6.53" length="9.12" shape="88.34,4.06 88.74,6.55 89.82,8.31 91.59,9.35 94.05,9.65"/>
    </edge>
    <edge id=":J1_7" function="internal">
        <lane id=":J1_7_0" index="0" speed="13.89" length="14.49" shape="88.34,4.06 88.52,18.54"/>
    </edge>
    <edge id=":J1_8" function="internal">
        <lane id=":J1_8_0" index="0" speed="7.94" length="4.14" shape="88.34,4.06 87.85,7.97 87.75,8.14"/>
    </edge>
    <edge id=":J1_14" function="internal">
        <lane id=":J1_14_0" index="0" speed="7.94" length="10.18" shape="87.75,8.14 86.23,10.75 83.46,12.39 79.55,12.89"/>
    </edge>
    <edge id=":J1_9" function="internal">
        <lane id=":J1_9_0" index="0" speed="6.43" length="9.03" shape="79.59,9.69 82.06,9.37 83.81,8.34 84.83,6.59 85.14,4.12"/>
    </edge>
    <edge id=":J1_10" function="internal">
        <lane id=":J1_10_0" index="0" speed="13.89" length="14.46" shape="79.59,9.69 94.05,9.65"/>
    </edge>
    <edge id=":J1_11" function="internal">
        <lane id=":J1_11_0" index="0" speed="8.08" length="3.93" shape="79.59,9.69 83.48,10.29"/>
    </edge>
    <edge id=":J1_15" function="internal">
        <lane id=":J1_15_0" index="0" speed="8.08" length="10.34" shape="83.48,10.29 86.26,11.97 87.95,14.72 88.52,18.54"/>
    </edge>
    <edge id=":J2_0" function="internal">
        <lane id=":J2_0_0" index="0" speed="6.95" length="9.81" shape="159.16,17.40 158.53,14.84 157.21,13.04 155.22,11.98 152.55,11.66"/>
    </edge>
    <edge id=":J2_1" function="internal">
        <lane id=":J2_1_0" index="0" speed="13.89" length="14.85" shape="159.16,17.40 157.60,2.63"/>
    </edge>
    <edge id=":J2_2" function="internal">
        <lane id=":J2_2_0" index="0" speed="7.91" length="3.97" shape="159.16,17.40 159.33,13.43"/>
    </edge>
    <edge id=":J2_12" function="internal">
        <lane id=":J2_12_0" index="0" speed="7.91" length="10.42" shape="159.33,13.43 160.75,10.54 163.40,8.71 167.30,7.96"/>
    </edge>
    <edge id=":J2_3" function="internal">
        <lane id=":J2_3_0" index="0" speed="6.40" length="9.04" shape="167.46,11.15 165.01,11.63 163.34,12.77 162.45,14.59 162.34,17.08"/>
    </edge>
    <edge id=":J2_4" function="internal">
        <lane id=":J2_4_0" index="0" speed="13.89" length="14.91" shape="167.46,11.15 152.55,11.66"/>
    </edge>
    <edge id=":J2_5" function="internal">
        <lane id=":J2_5_0" index="0" speed="8.31" length="4.23" shape="167.46,11.15 163.52,10.78 163.27,10.65"/>
    </edge>
    <edge id=":J2_13" function="internal">
        <lane id=":J2_13_0" index="0" speed="8.31" length="10.43" shape="163.27,10.65 160.56,9.24 158.59,6.52 157.60,2.63"/>
    </edge>
    <edge id=":J2_6" function="internal">
        <lane id=":J2_6_0" index="0" speed="6.88" length="9.73" shape="160.78,2.28 161.44,4.87 162.74,6.68 164.70,7.71 167.30,7.96"/>
    </edge>
    <edge id=":J2_7" function="internal">
        <lane id=":J2_7_0" index="0" speed="13.89" length="14.89" shape="160.78,2.28 162.34,17.08"/>
    </edge>
    <edge id=":J2_8" function="internal">
        <lane id=":J2_8_0" index="0" speed="7.85" length="4.19" shape="160.78,2.28 160.65,6.31 160.59,6.45"/>
    </edge>
    <edge id=":J2_14" function="internal">
        <lane id=":J2_14_0" index="0" speed="7.85" length="10.36" shape="160.59,6.45 159.24,9.22 156.54,11.01 152.55,11.66"/>
    </edge>
    <edge id=":J2_9" function="internal">
        <lane id=":J2_9_0" index="0" speed="6.32" length="9.04" shape="152.49,8.46 154.96,8.05 156.64,6.95 157.52,5.14 157.60,2.63"/>
    </edge>
    <edge id=":J2_10" function="internal">
        <lane id=":J2_10_0" index="0" speed="13.89" length="14.82" shape="152.49,8.46 167.30,7.96"/>
    </edge>
    <edge id=":J2_11" function="internal">
        <lane id=":J2_11_0" index="0" speed="8.37" length="4.01" shape="152.49,8.46 156.47,8.93"/>
    </edge>
    <edge id=":J2_15" function="internal">
        <lane id=":J2_15_0" index="0" speed="8.37" length="10.67" shape="156.47,8.93 159.44,10.53 161.40,13.24 162.34,17.08"/>
    </edge>
    <edge id=":J3_0" function="internal">
        <lane id=":J3_0_0" index="0" speed="6.70" length="9.34" shape="94.50,66.37 91.99,66.78 90.19,67.90 89.09,69.72 88.69,72.24"/>
    </edge>
    <edge id=":J3_1" function="internal">
        <lane id=":J3_1_0" index="0" speed="13.89" length="14.56" shape="94.50,66.37 79.94,66.61"/>
    </edge>
    <edge id=":J3_2" function="internal">
        <lane id=":J3_2_0" index="0" speed="7.97" length="4.12" shape="94.50,66.37 90.61,65.90 90.43,65.80"/>
    </edge>
    <edge id=":J3_12" function="internal">
        <lane id=":J3_12_0" index="0" speed="7.97" length="10.13" shape="90.43,65.80 87.83,64.30 86.14,61.56 85.57,57.69"/>
    </edge>
    <edge id=":J3_3" function="internal">
        <lane id=":J3_3_0" index="0" speed="6.47" length="9.03" shape="88.77,57.67 89.13,60.12 90.20,61.86 91.96,62.87 94.42,63.17"/>
    </edge>
    <edge id=":J3_4" function="internal">
        <lane id=":J3_4_0" index="0" speed="13.89" length="14.58" shape="88.77,57.67 88.69,72.24"/>
    </edge>
    <edge id=":J3_5" function="internal">
        <lane id=":J3_5_0" index="0" speed="8.05" length="4.17" shape="88.77,57.67 88.23,61.54 88.10,61.76"/>
    </edge>
    <edge id=":J3_13" function="internal">
        <lane id=":J3_13_0" index="0" speed="8.05" length="10.15" shape="88.10,61.76 86.59,64.33 83.82,66.01 79.94,66.61"/>
    </edge>
    <edge id=":J3_6" function="internal">
        <lane id=":J3_6_0" index="0" speed="6.56" length="9.17" shape="79.91,63.41 82.39,63.03 84.17,61.95 85.22,60.17 85.57,57.69"/>
    </edge>
    <edge id=":J3_7" function="internal">
        <lane id=":J3_7_0" index="0" speed="13.89" length="14.52" shape="79.91,63.41 94.42,63.17"/>
    </edge>
    <edge id=":J3_8" function="internal">
        <lane id=":J3_8_0" index="0" speed="7.95" length="4.05" shape="79.91,63.41 83.80,63.92 83.90,63.98"/>
    </edge>
    <edge id=":J3_14" function="internal">
        <lane id=":J3_14_0" index="0" speed="7.95" length="10.25" shape="83.90,63.98 86.57,65.57 88.20,68.34 88.69,72.24"/>
    </edge>
    <edge id=":J3_9" function="internal">
        <lane id=":J3_9_0" index="0" speed="6.45" length="9.03" shape="85.49,72.19 85.18,69.73 84.15,67.97 82.40,66.93 79.94,66.61"/>
    </edge>
    <edge id=":J3_10" function="internal">
        <lane id=":J3_10_0" index="0" speed="13.89" length="14.50" shape="85.49,72.19 85.57,57.69"/>
    </edge>
    <edge id=":J3_11" function="internal">
        <lane id=":J3_11_0" index="0" speed="8.16" length="4.03" shape="85.49,72.19 86.10,68.32 86.16,68.23"/>
    </edge>
    <edge id=":J3_15" function="internal">
        <lane id=":J3_15_0" index="0" speed="8.16" length="10.33" shape="86.16,68.23 87.80,65.52 90.57,63.81 94.42,63.17"/>
    </edge>
    <edge id=":J4_0" function="internal">
        <lane id=":J4_0_0" index="0" speed="6.39" length="9.06" shape="84.48,-29.81 84.08,-32.28 82.98,-33.97 81.17,-34.91 78.67,-35.07"/>
    </edge>
    <edge id=":J4_1" function="internal">
        <lane id=":J4_1_0" index="0" speed="13.89" length="14.60" shape="84.48,-29.81 84.36,-33.49 84.12,-37.10 83.77,-40.69 83.30,-44.35"/>
    </edge>
    <edge id=":J4_2" function="internal">
        <lane id=":J4_2_0" index="0" speed="7.89" length="3.99" shape="84.48,-29.81 84.97,-33.77"/>
    </edge>
    <edge id=":J4_12" function="internal">
        <lane id=":J4_12_0" index="0" speed="7.89" length="10.44" shape="84.97,-33.77 86.63,-36.54 89.43,-38.13 93.40,-38.53"/>
    </edge>
    <edge id=":J4_3" function="internal">
        <lane id=":J4_3_0" index="0" speed="6.38" length="9.04" shape="93.27,-35.33 90.78,-35.08 89.02,-34.08 87.99,-32.35 87.68,-29.87"/>
    </edge>
    <edge id=":J4_4" function="internal">
        <lane id=":J4_4_0" index="0" speed="13.89" length="14.61" shape="93.27,-35.33 89.58,-35.43 85.97,-35.42 82.35,-35.30 78.67,-35.07"/>
    </edge>
    <edge id=":J4_5" function="internal">
        <lane id=":J4_5_0" index="0" speed="8.76" length="4.07" shape="93.27,-35.33 89.37,-36.03 89.28,-36.09"/>
    </edge>
    <edge id=":J4_13" function="internal">
        <lane id=":J4_13_0" index="0" speed="8.76" length="10.71" shape="89.28,-36.09 86.42,-37.77 84.39,-40.54 83.30,-44.35"/>
    </edge>
    <edge id=":J4_6" function="internal">
        <lane id=":J4_6_0" index="0" speed="7.40" length="10.29" shape="86.47,-44.81 87.23,-42.15 88.64,-40.22 90.69,-39.02 93.40,-38.53"/>
    </edge>
    <edge id=":J4_7" function="internal">
        <lane id=":J4_7_0" index="0" speed="13.89" length="14.99" shape="86.47,-44.81 86.95,-41.09 87.31,-37.36 87.55,-33.62 87.68,-29.87"/>
    </edge>
    <edge id=":J4_8" function="internal">
        <lane id=":J4_8_0" index="0" speed="7.89" length="4.25" shape="86.47,-44.81 86.47,-40.81 86.37,-40.58"/>
    </edge>
    <edge id=":J4_14" function="internal">
        <lane id=":J4_14_0" index="0" speed="7.89" length="10.20" shape="86.37,-40.58 85.17,-37.86 82.57,-35.94 78.67,-35.07"/>
    </edge>
    <edge id=":J4_9" function="internal">
        <lane id=":J4_9_0" index="0" speed="6.37" length="9.04" shape="78.42,-38.26 80.86,-38.80 82.49,-40.00 83.30,-41.85 83.30,-44.35"/>
    </edge>
    <edge id=":J4_10" function="internal">
        <lane id=":J4_10_0" index="0" speed="13.89" length="14.99" shape="78.42,-38.26 82.17,-38.49 85.91,-38.62 89.66,-38.63 93.40,-38.53"/>
    </edge>
    <edge id=":J4_11" function="internal">
        <lane id=":J4_11_0" index="0" speed="7.90" length="4.25" shape="78.42,-38.26 82.41,-38.00 82.64,-37.88"/>
    </edge>
    <edge id=":J4_15" function="internal">
        <lane id=":J4_15_0" index="0" speed="7.90" length="10.20" shape="82.64,-37.88 85.28,-36.52 87.04,-33.81 87.68,-29.87"/>
    </edge>
    <edge id=":J5_0" function="internal">
        <lane id=":J5_0_0" index="0" speed="6.41" length="9.04" shape="9.24,-23.92 8.78,-26.37 7.65,-28.05 5.83,-28.96 3.35,-29.09"/>
    </edge>
    <edge id=":J5_1" function="internal">
        <lane id=":J5_1_0" index="0" speed="13.89" length="14.56" shape="9.24,-23.92 8.47,-38.47"/>
    </edge>
    <edge id=":J5_2" function="internal">
        <lane id=":J5_2_0" index="0" speed="8.17" length="4.05" shape="9.24,-23.92 9.62,-27.86 9.67,-27.95"/>
    </edge>
    <edge id=":J5_12" function="internal">
        <lane id=":J5_12_0" index="0" speed="8.17" length="10.35" shape="9.67,-27.95 11.15,-30.76 13.82,-32.64 17.63,-33.50"/>
    </edge>
    <edge id=":J5_3" function="internal">
        <lane id=":J5_3_0" index="0" speed="6.70" length="9.38" shape="17.88,-30.31 15.40,-29.75 13.67,-28.52 12.68,-26.63 12.43,-24.06"/>
    </edge>
    <edge id=":J5_4" function="internal">
        <lane id=":J5_4_0" index="0" speed="13.89" length="14.58" shape="17.88,-30.31 3.35,-29.09"/>
    </edge>
    <edge id=":J5_5" function="internal">
        <lane id=":J5_5_0" index="0" speed="7.98" length="4.04" shape="17.88,-30.31 13.97,-30.56 13.86,-30.62"/>
    </edge>
    <edge id=":J5_13" function="internal">
        <lane id=":J5_13_0" index="0" speed="7.98" length="10.21" shape="13.86,-30.62 11.10,-32.00 9.27,-34.64 8.47,-38.47"/>
    </edge>
    <edge id=":J5_6" function="internal">
        <lane id=":J5_6_0" index="0" speed="6.48" length="9.03" shape="11.66,-38.67 12.17,-36.24 13.33,-34.57 15.15,-33.66 17.63,-33.50"/>
    </edge>
    <edge id=":J5_7" function="internal">
        <lane id=":J5_7_0" index="0" speed="13.89" length="14.64" shape="11.66,-38.67 12.43,-24.06"/>
    </edge>
    <edge id=":J5_8" function="internal">
        <lane id=":J5_8_0" index="0" speed="8.12" length="4.16" shape="11.66,-38.67 11.35,-34.78 11.24,-34.55"/>
    </edge>
    <edge id=":J5_14" function="internal">
        <lane id=":J5_14_0" index="0" speed="8.12" length="10.23" shape="11.24,-34.55 9.86,-31.88 7.20,-29.99 3.35,-29.09"/>
    </edge>
    <edge id=":J5_9" function="internal">
        <lane id=":J5_9_0" index="0" speed="6.65" length="9.32" shape="3.06,-32.28 5.56,-32.86 7.30,-34.08 8.27,-35.95 8.47,-38.47"/>
    </edge>
    <edge id=":J5_10" function="internal">
        <lane id=":J5_10_0" index="0" speed="13.89" length="14.62" shape="3.06,-32.28 17.63,-33.50"/>
    </edge>
    <edge id=":J5_11" function="internal">
        <lane id=":J5_11_0" index="0" speed="7.92" length="4.15" shape="3.06,-32.28 7.02,-32.07 7.18,-31.99"/>
    </edge>
    <edge id=":J5_15" function="internal">
        <lane id=":J5_15_0" index="0" speed="7.92" length="10.23" shape="7.18,-31.99 9.90,-30.63 11.71,-27.96 12.43,-24.06"/>
    </edge>
    <edge id=":J6_0" function="internal">
        <lane id=":J6_0_0" index="0" speed="7.26" length="10.17" shape="154.34,-26.75 153.67,-29.41 152.33,-31.34 150.32,-32.55 147.64,-33.04"/>
    </edge>
    <edge id=":J6_1" function="internal">
        <lane id=":J6_1_0" index="0" speed="13.89" length="14.99" shape="154.34,-26.75 153.97,-30.48 153.68,-34.22 153.47,-37.96 153.34,-41.71"/>
    </edge>
    <edge id=":J6_2" function="internal">
        <lane id=":J6_2_0" index="0" speed="7.87" length="4.22" shape="154.34,-26.75 154.47,-30.76 154.56,-30.95"/>
    </edge>
    <edge id=":J6_12" function="internal">
        <lane id=":J6_12_0" index="0" speed="7.87" length="10.26" shape="154.56,-30.95 155.87,-33.67 158.55,-35.49 162.49,-36.20"/>
    </edge>
    <edge id=":J6_3" function="internal">
        <lane id=":J6_3_0" index="0" speed="6.35" length="9.04" shape="162.61,-33.00 160.15,-32.56 158.48,-31.43 157.60,-29.61 157.52,-27.11"/>
    </edge>
    <edge id=":J6_4" function="internal">
        <lane id=":J6_4_0" index="0" speed="13.89" length="14.97" shape="162.61,-33.00 147.64,-33.04"/>
    </edge>
    <edge id=":J6_5" function="internal">
        <lane id=":J6_5_0" index="0" speed="8.05" length="4.46" shape="162.61,-33.00 158.63,-33.42 158.23,-33.65"/>
    </edge>
    <edge id=":J6_13" function="internal">
        <lane id=":J6_13_0" index="0" speed="8.05" length="10.08" shape="158.23,-33.65 155.76,-35.01 154.00,-37.77 153.34,-41.71"/>
    </edge>
    <edge id=":J6_6" function="internal">
        <lane id=":J6_6_0" index="0" speed="6.57" length="9.33" shape="156.54,-41.78 156.96,-39.26 158.10,-37.49 159.94,-36.47 162.49,-36.20"/>
    </edge>
    <edge id=":J6_7" function="internal">
        <lane id=":J6_7_0" index="0" speed="13.89" length="14.71" shape="156.54,-41.78 156.67,-38.07 156.87,-34.43 157.15,-30.79 157.52,-27.11"/>
    </edge>
    <edge id=":J6_8" function="internal">
        <lane id=":J6_8_0" index="0" speed="7.89" length="3.99" shape="156.54,-41.78 156.06,-37.81"/>
    </edge>
    <edge id=":J6_14" function="internal">
        <lane id=":J6_14_0" index="0" speed="7.89" length="10.45" shape="156.06,-37.81 154.42,-35.03 151.61,-33.45 147.64,-33.04"/>
    </edge>
    <edge id=":J6_9" function="internal">
        <lane id=":J6_9_0" index="0" speed="6.37" length="9.04" shape="147.77,-36.24 150.26,-36.49 152.01,-37.49 153.04,-39.22 153.34,-41.71"/>
    </edge>
    <edge id=":J6_10" function="internal">
        <lane id=":J6_10_0" index="0" speed="13.89" length="14.72" shape="147.77,-36.24 162.49,-36.20"/>
    </edge>
    <edge id=":J6_11" function="internal">
        <lane id=":J6_11_0" index="0" speed="8.64" length="3.97" shape="147.77,-36.24 151.67,-35.53"/>
    </edge>
    <edge id=":J6_15" function="internal">
        <lane id=":J6_15_0" index="0" speed="8.64" length="10.81" shape="151.67,-35.53 154.60,-33.77 156.55,-30.96 157.52,-27.11"/>
    </edge>
    <edge id=":J7_0" function="internal">
        <lane id=":J7_0_0" index="0" speed="6.40" length="9.04" shape="12.45,73.12 12.04,70.66 10.93,68.96 9.13,68.03 6.64,67.87"/>
    </edge>
    <edge id=":J7_1" function="internal">
        <lane id=":J7_1_0" index="0" speed="13.89" length="14.50" shape="12.45,73.12 12.06,58.62"/>
    </edge>
    <edge id=":J7_2" function="internal">
        <lane id=":J7_2_0" index="0" speed="8.00" length="4.12" shape="12.45,73.12 12.91,69.18 12.98,69.05"/>
    </edge>
    <edge id=":J7_12" function="internal">
        <lane id=":J7_12_0" index="0" speed="8.00" length="10.23" shape="12.98,69.05 14.50,66.35 17.23,64.64 21.10,64.03"/>
    </edge>
    <edge id=":J7_3" function="internal">
        <lane id=":J7_3_0" index="0" speed="6.51" length="9.13" shape="21.13,67.23 18.68,67.62 16.95,68.71 15.94,70.52 15.65,73.04"/>
    </edge>
    <edge id=":J7_4" function="internal">
        <lane id=":J7_4_0" index="0" speed="13.89" length="14.50" shape="21.13,67.23 6.64,67.87"/>
    </edge>
    <edge id=":J7_5" function="internal">
        <lane id=":J7_5_0" index="0" speed="8.06" length="3.90" shape="21.13,67.23 17.26,66.73"/>
    </edge>
    <edge id=":J7_13" function="internal">
        <lane id=":J7_13_0" index="0" speed="8.06" length="10.30" shape="17.26,66.73 14.46,65.13 12.72,62.42 12.06,58.62"/>
    </edge>
    <edge id=":J7_6" function="internal">
        <lane id=":J7_6_0" index="0" speed="6.58" length="9.11" shape="15.26,58.53 15.69,60.96 16.80,62.69 18.60,63.71 21.10,64.03"/>
    </edge>
    <edge id=":J7_7" function="internal">
        <lane id=":J7_7_0" index="0" speed="13.89" length="14.52" shape="15.26,58.53 15.65,73.04"/>
    </edge>
    <edge id=":J7_8" function="internal">
        <lane id=":J7_8_0" index="0" speed="8.18" length="4.05" shape="15.26,58.53 14.82,62.36 14.72,62.52"/>
    </edge>
    <edge id=":J7_14" function="internal">
        <lane id=":J7_14_0" index="0" speed="8.18" length="10.30" shape="14.72,62.52 13.23,65.19 10.51,67.03 6.64,67.87"/>
    </edge>
    <edge id=":J7_9" function="internal">
        <lane id=":J7_9_0" index="0" speed="6.72" length="9.36" shape="6.40,64.68 8.94,64.13 10.73,62.94 11.77,61.10 12.06,58.62"/>
    </edge>
    <edge id=":J7_10" function="internal">
        <lane id=":J7_10_0" index="0" speed="13.89" length="14.71" shape="6.40,64.68 21.10,64.03"/>
    </edge>
    <edge id=":J7_11" function="internal">
        <lane id=":J7_11_0" index="0" speed="7.91" length="4.36" shape="6.40,64.68 10.36,64.94 10.71,65.12"/>
    </edge>
    <edge id=":J7_15" function="internal">
        <lane id=":J7_15_0" index="0" speed="7.91" length="10.03" shape="10.71,65.12 13.23,66.42 14.99,69.12 15.65,73.04"/>
    </edge>
    <edge id=":J8_0" function="internal">
        <lane id=":J8_0_0" index="0" speed="6.38" length="9.04" shape="172.61,65.25 170.12,65.45 168.33,66.41 167.26,68.12 166.89,70.59"/>
    </edge>
    <edge id=":J8_1" function="internal">
        <lane id=":J8_1_0" index="0" speed="13.89" length="14.70" shape="172.61,65.25 157.91,64.96"/>
    </edge>
    <edge id=":J8_2" function="internal">
        <lane id=":J8_2_0" index="0" speed="8.68" length="3.85" shape="172.61,65.25 168.83,64.48"/>
    </edge>
    <edge id=":J8_12" function="internal">
        <lane id=":J8_12_0" index="0" speed="8.68" length="10.93" shape="168.83,64.48 168.73,64.46 165.84,62.65 163.93,59.80 163.00,55.93"/>
    </edge>
    <edge id=":J8_3" function="internal">
        <lane id=":J8_3_0" index="0" speed="7.30" length="10.20" shape="166.18,55.61 166.82,58.29 168.14,60.26 170.14,61.51 172.81,62.06"/>
    </edge>
    <edge id=":J8_4" function="internal">
        <lane id=":J8_4_0" index="0" speed="13.89" length="15.00" shape="166.18,55.61 166.51,59.35 166.73,63.09 166.86,66.84 166.89,70.59"/>
    </edge>
    <edge id=":J8_5" function="internal">
        <lane id=":J8_5_0" index="0" speed="7.87" length="4.24" shape="166.18,55.61 166.01,59.62 165.91,59.82"/>
    </edge>
    <edge id=":J8_13" function="internal">
        <lane id=":J8_13_0" index="0" speed="7.87" length="10.25" shape="165.91,59.82 164.57,62.52 161.87,64.29 157.91,64.96"/>
    </edge>
    <edge id=":J8_6" function="internal">
        <lane id=":J8_6_0" index="0" speed="6.35" length="9.04" shape="157.84,61.76 160.31,61.34 161.99,60.24 162.89,58.43 163.00,55.93"/>
    </edge>
    <edge id=":J8_7" function="internal">
        <lane id=":J8_7_0" index="0" speed="13.89" length="14.97" shape="157.84,61.76 172.81,62.06"/>
    </edge>
    <edge id=":J8_8" function="internal">
        <lane id=":J8_8_0" index="0" speed="8.01" length="4.50" shape="157.84,61.76 161.82,62.23 162.24,62.48"/>
    </edge>
    <edge id=":J8_14" function="internal">
        <lane id=":J8_14_0" index="0" speed="8.01" length="10.02" shape="162.24,62.48 164.65,63.86 166.34,66.65 166.89,70.59"/>
    </edge>
    <edge id=":J8_9" function="internal">
        <lane id=":J8_9_0" index="0" speed="6.52" length="9.25" shape="163.69,70.57 163.34,68.07 162.26,66.29 160.45,65.26 157.91,64.96"/>
    </edge>
    <edge id=":J8_10" function="internal">
        <lane id=":J8_10_0" index="0" speed="13.89" length="14.67" shape="163.69,70.57 163.66,66.87 163.54,63.24 163.32,59.61 163.00,55.93"/>
    </edge>
    <edge id=":J8_11" function="internal">
        <lane id=":J8_11_0" index="0" speed="7.90" length="3.98" shape="163.69,70.57 164.28,66.63"/>
    </edge>
    <edge id=":J8_15" function="internal">
        <lane id=":J8_15_0" index="0" speed="7.90" length="10.43" shape="164.28,66.63 165.99,63.90 168.84,62.38 172.81,62.06"/>
    </edge>

    <edge id="-E0" from="J1" to="J0" priority="-1">
        <lane id="-E0_0" index="0" speed="13.89" length="59.98" shape="79.55,12.89 19.57,12.00"/>
    </edge>
    <edge id="-E1" from="J2" to="J1" priority="-1">
        <lane id="-E1_0" index="0" speed="13.89" length="58.45" shape="152.55,11.66 94.11,12.85"/>
    </edge>
    <edge id="-E10" from="J8" to="J3" priority="-1">
        <lane id="-E10_0" index="0" speed="13.89" length="63.43" shape="157.91,64.96 94.50,66.37"/>
    </edge>
    <edge id="-E11" from="J2" to="J8" priority="-1">
        <lane id="-E11_0" index="0" speed="13.89" length="38.72" shape="162.34,17.08 166.18,55.61"/>
    </edge>
    <edge id="-E12" from="J9" to="J7" priority="-1">
        <lane id="-E12_0" index="0" speed="13.89" length="30.33" shape="13.19,103.44 12.45,73.12"/>
    </edge>
    <edge id="-E13" from="J10" to="J3" priority="-1">
        <lane id="-E13_0" index="0" speed="13.89" length="27.85" shape="85.03,100.03 85.49,72.19"/>
    </edge>
    <edge id="-E14" from="J11" to="J8" priority="-1">
        <lane id="-E14_0" index="0" speed="13.89" length="27.81" shape="163.55,98.38 163.69,70.57"/>
    </edge>
    <edge id="-E15" from="J12" to="J8" priority="-1">
        <lane id="-E15_0" index="0" speed="13.89" length="42.32" shape="214.84,67.91 172.61,65.25"/>
    </edge>
    <edge id="-E16" from="J13" to="J2" priority="-1">
        <lane id="-E16_0" index="0" speed="13.89" length="35.57" shape="202.99,9.44 167.46,11.15"/>
    </edge>
    <edge id="-E17" from="J14" to="J6" priority="-1">
        <lane id="-E17_0" index="0" speed="13.89" length="36.04" shape="198.63,-34.33 162.61,-33.00"/>
    </edge>
    <edge id="-E18" from="J15" to="J5" priority="-1">
        <lane id="-E18_0" index="0" speed="13.89" length="25.15" shape="10.04,-63.77 11.66,-38.67"/>
    </edge>
    <edge id="-E19" from="J16" to="J4" priority="-1">
        <lane id="-E19_0" index="0" speed="13.89" length="18.28" shape="83.87,-62.90 86.47,-44.81"/>
    </edge>
    <edge id="-E2" from="J3" to="J1" priority="-1">
        <lane id="-E2_0" index="0" speed="13.89" length="39.12" shape="85.57,57.69 85.32,18.56"/>
    </edge>
    <edge id="-E20" from="J17" to="J6" priority="-1">
        <lane id="-E20_0" index="0" speed="13.89" length="21.59" shape="156.06,-63.37 156.54,-41.78"/>
    </edge>
    <edge id="-E21" from="J18" to="J5" priority="-1">
        <lane id="-E21_0" index="0" speed="13.89" length="16.21" shape="-13.08,-30.84 3.06,-32.28"/>
    </edge>
    <edge id="-E22" from="J19" to="J0" priority="-1">
        <lane id="-E22_0" index="0" speed="13.89" length="33.36" shape="-28.37,10.25 4.96,8.97"/>
    </edge>
    <edge id="-E23" from="J20" to="J7" priority="-1">
        <lane id="-E23_0" index="0" speed="13.89" length="39.96" shape="-33.44,67.72 6.40,64.68"/>
    </edge>
    <edge id="-E3" from="J4" to="J1" priority="-1">
        <lane id="-E3_0" index="0" speed="13.89" length="33.94" shape="87.68,-29.87 88.34,4.06"/>
    </edge>
    <edge id="-E4" from="J5" to="J0" priority="-1">
        <lane id="-E4_0" index="0" speed="13.89" length="27.10" shape="12.43,-24.06 13.55,3.02"/>
    </edge>
    <edge id="-E5" from="J4" to="J5" priority="-1">
        <lane id="-E5_0" index="0" speed="13.89" length="60.98" shape="78.67,-35.07 17.88,-30.31"/>
    </edge>
    <edge id="-E6" from="J6" to="J4" priority="-1">
        <lane id="-E6_0" index="0" speed="13.89" length="54.42" shape="147.64,-33.04 93.27,-35.33"/>
    </edge>
    <edge id="-E7" from="J6" to="J2" priority="-1">
        <lane id="-E7_0" index="0" speed="13.89" length="29.56" shape="157.52,-27.11 160.78,2.28"/>
    </edge>
    <edge id="-E8" from="J7" to="J3" priority="-1">