<?xml version="1.0" encoding="UTF-8"?>

<!-- generated on 2026-06-18T15:23:22.182327+09:00 by Eclipse SUMO netedit 1.26.0
<neteditConfiguration xmlns:xsi="http://www.w3.org/2001/XMLSchema-instance" xsi:noNamespaceSchemaLocation="http://sumo.dlr.de/xsd/neteditConfiguration.xsd">

    <input>
        <sumo-net-file value="C:\Users\GLAB-PC002\Desktop\sumo_project\map02.net.xml"/>
    </input>

    <output>
        <output-file value="C:\Users\GLAB-PC002\Desktop\sumo_project\map02.net.xml"/>
    </output>

    <processing>
        <offset.disable-normalization value="true"/>
    </processing>

    <junctions>
        <no-turnarounds value="true"/>
    </junctions>

    <netedit>
        <new-network value="false"/>
    </netedit>

</neteditConfiguration>
-->

<net version="1.20" junctionCornerDetail="5" limitTurnSpeed="5.50" xmlns:xsi="http://www.w3.org/2001/XMLSchema-instance" xsi:noNamespaceSchemaLocation="http://sumo.dlr.de/xsd/net_file.xsd">

    <location netOffset="0.00,0.00" convBoundary="-83.21,-130.90,220.14,112.12" origBoundary="10000000000.00,10000000000.00,-10000000000.00,-10000000000.00" projParameter="!"/>

    <edge id=":J10_0" function="internal">
        <lane id=":J10_0_0" index="0" speed="6.55" length="9.16" shape="-12.12,-47.29 -12.48,-49.76 -13.57,-51.51 -15.36,-52.56 -17.86,-52.90"/>
    </edge>
    <edge id=":J10_1" function="internal">
        <lane id=":J10_1_0" index="0" speed="13.89" length="14.50" shape="-12.12,-47.29 -12.46,-61.79"/>
    </edge>
    <edge id=":J10_2" function="internal">
        <lane id=":J10_2_0" index="0" speed="7.98" length="14.24" shape="-12.12,-47.29 -11.58,-51.16 -9.93,-53.92 -7.17,-55.56 -3.29,-56.08"/>
    </edge>
    <edge id=":J10_3" function="internal">
        <lane id=":J10_3_0" index="0" speed="6.48" length="9.03" shape="-3.32,-52.88 -5.78,-52.55 -7.53,-51.51 -8.58,-49.76 -8.92,-47.31"/>
    </edge>
    <edge id=":J10_4" function="internal">
        <lane id=":J10_4_0" index="0" speed="13.89" length="14.54" shape="-3.32,-52.88 -17.86,-52.90"/>
    </edge>
    <edge id=":J10_5" function="internal">
        <lane id=":J10_5_0" index="0" speed="8.21" length="4.03" shape="-3.32,-52.88 -7.18,-53.46 -7.29,-53.53"/>
    </edge>
    <edge id=":J10_12" function="internal">
        <lane id=":J10_12_0" index="0" speed="8.21" length="10.36" shape="-7.29,-53.53 -9.99,-55.14 -11.75,-57.92 -12.46,-61.79"/>
    </edge>
    <edge id=":J10_6" function="internal">
        <lane id=":J10_6_0" index="0" speed="6.75" length="9.42" shape="-9.27,-61.92 -8.80,-59.38 -7.65,-57.56 -5.81,-56.46 -3.29,-56.08"/>
    </edge>
    <edge id=":J10_7" function="internal">
        <lane id=":J10_7_0" index="0" speed="13.89" length="14.62" shape="-9.27,-61.92 -8.92,-47.31"/>
    </edge>
    <edge id=":J10_8" function="internal">
        <lane id=":J10_8_0" index="0" speed="7.94" length="14.34" shape="-9.27,-61.92 -9.66,-57.99 -11.22,-55.18 -13.96,-53.48 -17.86,-52.90"/>
    </edge>
    <edge id=":J10_9" function="internal">
        <lane id=":J10_9_0" index="0" speed="6.43" length="9.03" shape="-17.88,-56.10 -15.42,-56.47 -13.70,-57.54 -12.71,-59.31 -12.46,-61.79"/>
    </edge>
    <edge id=":J10_10" function="internal">
        <lane id=":J10_10_0" index="0" speed="13.89" length="14.59" shape="-17.88,-56.10 -3.29,-56.08"/>
    </edge>
    <edge id=":J10_11" function="internal">
        <lane id=":J10_11_0" index="0" speed="8.03" length="4.17" shape="-17.88,-56.10 -13.97,-55.57 -13.78,-55.45"/>
    </edge>
    <edge id=":J10_13" function="internal">
        <lane id=":J10_13_0" index="0" speed="8.03" length="10.15" shape="-13.78,-55.45 -11.18,-53.93 -9.49,-51.17 -8.92,-47.31"/>
    </edge>
    <edge id=":J12_0" function="internal">
        <lane id=":J12_0_0" index="0" speed="6.73" length="9.43" shape="138.49,37.43 138.00,34.90 136.82,33.11 134.95,32.05 132.41,31.72"/>
    </edge>
    <edge id=":J12_1" function="internal">
        <lane id=":J12_1_0" index="0" speed="13.89" length="14.65" shape="138.49,37.43 137.77,22.80"/>
    </edge>
    <edge id=":J12_2" function="internal">
        <lane id=":J12_2_0" index="0" speed="7.93" length="14.35" shape="138.49,37.43 138.84,33.49 140.37,30.66 143.09,28.93 146.99,28.31"/>
    </edge>
    <edge id=":J12_3" function="internal">
        <lane id=":J12_3_0" index="0" speed="6.42" length="9.04" shape="147.04,31.51 144.58,31.90 142.87,32.99 141.91,34.77 141.69,37.25"/>
    </edge>
    <edge id=":J12_4" function="internal">
        <lane id=":J12_4_0" index="0" speed="13.89" length="14.63" shape="147.04,31.51 132.41,31.72"/>
    </edge>
    <edge id=":J12_5" function="internal">
        <lane id=":J12_5_0" index="0" speed="8.15" length="4.13" shape="147.04,31.51 143.13,31.01 142.97,30.92"/>
    </edge>
    <edge id=":J12_12" function="internal">
        <lane id=":J12_12_0" index="0" speed="8.15" length="10.29" shape="142.97,30.92 140.28,29.40 138.49,26.66 137.77,22.80"/>
    </edge>
    <edge id=":J12_6" function="internal">
        <lane id=":J12_6_0" index="0" speed="6.68" length="9.36" shape="140.96,22.66 141.44,25.16 142.60,26.94 144.45,27.99 146.99,28.31"/>
    </edge>
    <edge id=":J12_7" function="internal">
        <lane id=":J12_7_0" index="0" speed="13.89" length="14.61" shape="140.96,22.66 141.69,37.25"/>
    </edge>
    <edge id=":J12_8" function="internal">
        <lane id=":J12_8_0" index="0" speed="7.95" length="14.31" shape="140.96,22.66 140.58,26.58 139.03,29.39 136.30,31.11 132.41,31.72"/>
    </edge>
    <edge id=":J12_9" function="internal">
        <lane id=":J12_9_0" index="0" speed="6.44" length="9.03" shape="132.37,28.52 134.82,28.13 136.54,27.05 137.52,25.27 137.77,22.80"/>
    </edge>
    <edge id=":J12_10" function="internal">
        <lane id=":J12_10_0" index="0" speed="13.89" length="14.63" shape="132.37,28.52 146.99,28.31"/>
    </edge>
    <edge id=":J12_11" function="internal">
        <lane id=":J12_11_0" index="0" speed="8.19" length="4.10" shape="132.37,28.52 136.26,29.02 136.41,29.11"/>
    </edge>
    <edge id=":J12_13" function="internal">
        <lane id=":J12_13_0" index="0" speed="8.19" length="10.33" shape="136.41,29.11 139.12,30.64 140.92,33.39 141.69,37.25"/>
    </edge>
    <edge id=":J13_0" function="internal">
        <lane id=":J13_0_0" index="0" speed="6.76" length="9.44" shape="134.71,-46.04 134.24,-48.53 133.06,-50.31 131.18,-51.40 128.61,-51.77"/>
    </edge>
    <edge id=":J13_1" function="internal">
        <lane id=":J13_1_0" index="0" speed="13.89" length="14.58" shape="134.71,-46.04 134.07,-60.60"/>
    </edge>
    <edge id=":J13_2" function="internal">
        <lane id=":J13_2_0" index="0" speed="8.00" length="4.07" shape="134.71,-46.04 135.09,-49.91 135.18,-50.07"/>
    </edge>
    <edge id=":J13_12" function="internal">
        <lane id=":J13_12_0" index="0" speed="8.00" length="10.13" shape="135.18,-50.07 136.62,-52.73 139.30,-54.50 143.13,-55.21"/>
    </edge>
    <edge id=":J13_3" function="internal">
        <lane id=":J13_3_0" index="0" speed="6.50" length="9.03" shape="143.26,-52.01 140.83,-51.56 139.12,-50.44 138.15,-48.64 137.91,-46.18"/>
    </edge>
    <edge id=":J13_4" function="internal">
        <lane id=":J13_4_0" index="0" speed="13.89" length="14.65" shape="143.26,-52.01 128.61,-51.77"/>
    </edge>
    <edge id=":J13_5" function="internal">
        <lane id=":J13_5_0" index="0" speed="8.05" length="14.34" shape="143.26,-52.01 139.39,-52.41 136.56,-53.98 134.79,-56.71 134.07,-60.60"/>
    </edge>
    <edge id=":J13_6" function="internal">
        <lane id=":J13_6_0" index="0" speed="6.56" length="9.19" shape="137.27,-60.74 137.73,-58.23 138.86,-56.48 140.66,-55.47 143.13,-55.21"/>
    </edge>
    <edge id=":J13_7" function="internal">
        <lane id=":J13_7_0" index="0" speed="13.89" length="14.58" shape="137.27,-60.74 137.91,-46.18"/>
    </edge>
    <edge id=":J13_8" function="internal">
        <lane id=":J13_8_0" index="0" speed="7.91" length="4.11" shape="137.27,-60.74 136.87,-56.79 136.81,-56.67"/>
    </edge>
    <edge id=":J13_13" function="internal">
        <lane id=":J13_13_0" index="0" speed="7.91" length="10.29" shape="136.81,-56.67 135.30,-53.98 132.54,-52.30 128.61,-51.77"/>
    </edge>
    <edge id=":J13_9" function="internal">
        <lane id=":J13_9_0" index="0" speed="6.40" length="9.04" shape="128.63,-54.97 131.11,-55.31 132.84,-56.36 133.82,-58.12 134.07,-60.60"/>
    </edge>
    <edge id=":J13_10" function="internal">
        <lane id=":J13_10_0" index="0" speed="13.89" length="14.50" shape="128.63,-54.97 143.13,-55.21"/>
    </edge>
    <edge id=":J13_11" function="internal">
        <lane id=":J13_11_0" index="0" speed="8.22" length="14.41" shape="128.63,-54.97 132.55,-54.39 135.40,-52.74 137.18,-50.00 137.91,-46.18"/>
    </edge>
    <edge id=":J9_0" function="internal">
        <lane id=":J9_0_0" index="0" speed="6.55" length="9.09" shape="-11.66,39.28 -12.04,36.82 -13.12,35.07 -14.89,34.02 -17.36,33.67"/>
    </edge>
    <edge id=":J9_1" function="internal">
        <lane id=":J9_1_0" index="0" speed="13.89" length="14.43" shape="-11.66,39.28 -11.77,24.85"/>
    </edge>
    <edge id=":J9_2" function="internal">
        <lane id=":J9_2_0" index="0" speed="8.02" length="4.08" shape="-11.66,39.28 -11.15,35.43 -11.05,35.26"/>
    </edge>
    <edge id=":J9_12" function="internal">
        <lane id=":J9_12_0" index="0" speed="8.02" length="10.13" shape="-11.05,35.26 -9.53,32.66 -6.79,30.97 -2.93,30.37"/>
    </edge>
    <edge id=":J9_3" function="internal">
        <lane id=":J9_3_0" index="0" speed="6.52" length="9.06" shape="-2.89,33.57 -5.35,33.95 -7.10,35.03 -8.14,36.79 -8.46,39.24"/>
    </edge>
    <edge id=":J9_4" function="internal">
        <lane id=":J9_4_0" index="0" speed="13.89" length="14.47" shape="-2.89,33.57 -17.36,33.67"/>
    </edge>
    <edge id=":J9_5" function="internal">
        <lane id=":J9_5_0" index="0" speed="7.99" length="14.23" shape="-2.89,33.57 -6.76,33.07 -9.53,31.45 -11.20,28.71 -11.77,24.85"/>
    </edge>
    <edge id=":J9_6" function="internal">
        <lane id=":J9_6_0" index="0" speed="6.49" length="9.03" shape="-8.57,24.83 -8.21,27.29 -7.15,29.03 -5.39,30.05 -2.93,30.37"/>
    </edge>
    <edge id=":J9_7" function="internal">
        <lane id=":J9_7_0" index="0" speed="13.89" length="14.41" shape="-8.57,24.83 -8.46,39.24"/>
    </edge>
    <edge id=":J9_8" function="internal">
        <lane id=":J9_8_0" index="0" speed="8.00" length="4.05" shape="-8.57,24.83 -9.11,28.70 -9.19,28.83"/>
    </edge>
    <edge id=":J9_13" function="internal">
        <lane id=":J9_13_0" index="0" speed="8.00" length="10.17" shape="-9.19,28.83 -10.75,31.46 -13.50,33.12 -17.36,33.67"/>
    </edge>
    <edge id=":J9_9" function="internal">
        <lane id=":J9_9_0" index="0" speed="6.50" length="9.04" shape="-17.36,30.47 -14.90,30.12 -13.16,29.06 -12.11,27.31 -11.77,24.85"/>
    </edge>
    <edge id=":J9_10" function="internal">
        <lane id=":J9_10_0" index="0" speed="13.89" length="14.42" shape="-17.36,30.47 -2.93,30.37"/>
    </edge>
    <edge id=":J9_11" function="internal">
        <lane id=":J9_11_0" index="0" speed="8.04" length="14.21" shape="-17.36,30.47 -13.50,31.02 -10.73,32.66 -9.05,35.40 -8.46,39.24"/>
    </edge>

    <edge id="-E10" from="J13" to="J10" priority="-1">
        <lane id="-E10_0" index="0" speed="13.89" length="131.93" shape="128.61,-51.77 -3.32,-52.88"/>
    </edge>
    <edge id="-E12" from="J15" to="J10" priority="-1">
        <lane id="-E12_0" index="0" speed="13.89" length="65.34" shape="-83.22,-55.73 -17.88,-56.10"/>
    </edge>
    <edge id="-E13" from="J16" to="J10" priority="-1">
        <lane id="-E13_0" index="0" speed="13.89" length="69.11" shape="-12.24,-130.97 -9.27,-61.92"/>
    </edge>
    <edge id="-E14" from="J17" to="J12" priority="-1">
        <lane id="-E14_0" index="0" speed="13.89" length="73.13" shape="220.16,30.39 147.04,31.51"/>
    </edge>
    <edge id="-E15" from="J18" to="J9" priority="-1">
        <lane id="-E15_0" index="0" speed="13.89" length="69.98" shape="-10.92,109.26 -11.66,39.28"/>
    </edge>
    <edge id="-E16" from="J19" to="J12" priority="-1">
        <lane id="-E16_0" index="0" speed="13.89" length="74.89" shape="142.60,112.21 138.49,37.43"/>
    </edge>
    <edge id="-E17" from="J20" to="J13" priority="-1">
        <lane id="-E17_0" index="0" speed="13.89" length="68.23" shape="134.31,-128.91 137.27,-60.74"/>
    </edge>
    <edge id="-E18" from="J21" to="J13" priority="-1">
        <lane id="-E18_0" index="0" speed="13.89" length="72.09" shape="215.29,-55.00 143.26,-52.01"/>
    </edge>
    <edge id="-E6" from="J9" to="J8" priority="-1">
        <lane id="-E6_0" index="0" speed="13.89" length="60.52" shape="-17.36,33.67 -77.88,33.67"/>
    </edge>
    <edge id="-E7" from="J10" to="J9" priority="-1">
        <lane id="-E7_0" index="0" speed="13.89" length="72.14" shape="-8.92,-47.31 -8.57,24.83"/>
    </edge>
    <edge id="-E8" from="J12" to="J9" priority="-1">
        <lane id="-E8_0" index="0" speed="13.89" length="135.32" shape="132.41,31.72 -2.89,33.57"/>
    </edge>
    <edge id="-E9" from="J13" to="J12" priority="-1">
        <lane id="-E9_0" index="0" speed="13.89" length="68.90" shape="137.91,-46.18 140.96,22.66"/>
    </edge>
    <edge id="E10" from="J10" to="J13" priority="-1">
        <lane id="E10_0" index="0" speed="13.89" length="131.93" shape="-3.29,-56.08 128.63,-54.97"/>
    </edge>
    <edge id="E12" from="J10" to="J15" priority="-1">
        <lane id="E12_0" index="0" speed="13.89" length="65.34" shape="-17.86,-52.90 -83.20,-52.53"/>
    </edge>
    <edge id="E13" from="J10" to="J16" priority="-1">
        <lane id="E13_0" index="0" speed="13.89" length="69.11" shape="-12.46,-61.79 -15.44,-130.83"/>
    </edge>
    <edge id="E14" from="J12" to="J17" priority="-1">
        <lane id="E14_0" index="0" speed="13.89" length="73.13" shape="146.99,28.31 220.12,27.19"/>
    </edge>
    <edge id="E15" from="J9" to="J18" priority="-1">
        <lane id="E15_0" index="0" speed="13.89" length="69.98" shape="-8.46,39.24 -7.72,109.22"/>
    </edge>
    <edge id="E16" from="J12" to="J19" priority="-1">
        <lane id="E16_0" index="0" speed="13.89" length="74.89" shape="141.69,37.25 145.80,112.03"/>
    </edge>
    <edge id="E17" from="J13" to="J20" priority="-1">
        <lane id="E17_0" index="0" speed="13.89" length="68.23" shape="134.07,-60.60 131.11,-128.77"/>
    </edge>
    <edge id="E18" from="J13" to="J21" priority="-1">
        <lane id="E18_0" index="0" speed="13.89" length="72.09" shape="143.13,-55.21 215.15,-58.20"/>
    </edge>
    <edge id="E6" from="J8" to="J9" priority="-1">
        <lane id="E6_0" index="0" speed="13.89" length="60.52" shape="-77.88,30.47 -17.36,30.47"/>
    </edge>
    <edge id="E7" from="J9" to="J10" priority="-1">
        <lane id="E7_0" index="0" speed="13.89" length="72.14" shape="-11.77,24.85 -12.12,-47.29"/>
    </edge>
    <edge id="E8" from="J9" to="J12" priority="-1">
        <lane id="E8_0" index="0" speed="13.89" length="135.32" shape="-2.93,30.37 132.37,28.52"/>
    </edge>
    <edge id="E9" from="J12" to="J13" priority="-1">
        <lane id="E9_0" index="0" speed="13.89" length="68.90" shape="137.77,22.80 134.71,-46.04"/>
    </edge>

    <junction id="J10" type="priority" x="-10.55" y="-54.54" incLanes="E7_0 -E10_0 -E13_0 -E12_0" intLanes=":J10_0_0 :J10_1_0 :J10_2_0 :J10_3_0 :J10_4_0 :J10_12_0 :J10_6_0 :J10_7_0 :J10_8_0 :J10_9_0 :J10_10_0 :J10_13_0" shape="-13.72,-47.28 -7.32,-47.31 -6.88,-49.53 -6.33,-50.30 -5.55,-50.85 -4.56,-51.18 -3.33,-51.28 -3.28,-57.68 -5.64,-58.17 -6.48,-58.78 -7.10,-59.61 -7.50,-60.68 -7.67,-61.99 -14.06,-61.72 -14.41,-59.49 -14.93,-58.71 -15.69,-58.16 -16.67,-57.82 -17.89,-57.70 -17.85,-51.30 -15.56,-50.86 -14.76,-50.31 -14.18,-49.52 -13.84,-48.52">
        <request index="0"  response="000000010000" foes="000100010000" cont="0"/>
        <request index="1"  response="111000110000" foes="111100110000" cont="0"/>
        <request index="2"  response="110011110000" foes="110111110000" cont="0"/>
        <request index="3"  response="000000000000" foes="100010000000" cont="0"/>
        <request index="4"  response="000000000000" foes="100110000111" cont="0"/>
        <request index="5"  response="111000000000" foes="111110000110" cont="1"/>
        <request index="6"  response="010000000000" foes="010000000100" cont="0"/>
        <request index="7"  response="110000111000" foes="110000111100" cont="0"/>
        <request index="8"  response="110000110111" foes="110000110111" cont="0"/>
        <request index="9"  response="000000000000" foes="000000100010" cont="0"/>
        <request index="10" response="000000000000" foes="000111100110" cont="0"/>
        <request index="11" response="000000011000" foes="000110111110" cont="1"/>
    </junction>
    <junction id="J12" type="priority" x="139.69" y="30.02" incLanes="-E16_0 -E14_0 -E9_0 E8_0" intLanes=":J12_0_0 :J12_1_0 :J12_2_0 :J12_3_0 :J12_4_0 :J12_12_0 :J12_6_0 :J12_7_0 :J12_8_0 :J12_9_0 :J12_10_0 :J12_13_0" shape="136.90,37.51 143.29,37.16 143.61,34.94 144.12,34.15 144.87,33.59 145.85,33.24 147.07,33.11 146.97,26.71 144.60,26.28 143.76,25.71 143.14,24.90 142.74,23.86 142.56,22.59 136.17,22.87 135.82,25.10 135.30,25.88 134.55,26.45 133.56,26.79 132.35,26.92 132.43,33.32 134.81,33.76 135.66,34.34 136.30,35.16 136.71,36.22">
        <request index="0"  response="000000010000" foes="000100010000" cont="0"/>
        <request index="1"  response="111000110000" foes="111100110000" cont="0"/>
        <request index="2"  response="110111110000" foes="110111110000" cont="0"/>
        <request index="3"  response="000000000000" foes="100010000000" cont="0"/>
        <request index="4"  response="000000000000" foes="100110000111" cont="0"/>
        <request index="5"  response="111000000000" foes="111110000110" cont="1"/>
        <request index="6"  response="010000000000" foes="010000000100" cont="0"/>
        <request index="7"  response="110000111000" foes="110000111100" cont="0"/>
        <request index="8"  response="110000110011" foes="110000110111" cont="0"/>
        <request index="9"  response="000000000000" foes="000000100010" cont="0"/>
        <request index="10" response="000000000000" foes="000111100110" cont="0"/>
        <request index="11" response="000000011000" foes="000110111110" cont="1"/>
    </junction>
    <junction id="J13" type="priority" x="135.99" y="-53.31" incLanes="E9_0 -E18_0 -E17_0 E10_0" intLanes=":J13_0_0 :J13_1_0 :J13_12_0 :J13_3_0 :J13_4_0 :J13_5_0 :J13_6_0 :J13_7_0 :J13_13_0 :J13_9_0 :J13_10_0 :J13_11_0" shape="133.11,-45.97 139.51,-46.25 139.85,-48.49 140.37,-49.29 141.13,-49.88 142.11,-50.25 143.33,-50.41 143.06,-56.81 140.81,-57.18 140.01,-57.72 139.41,-58.51 139.03,-59.54 138.87,-60.81 132.47,-60.53 132.13,-58.32 131.60,-57.55 130.85,-57.00 129.86,-56.67 128.65,-56.57 128.59,-50.17 131.02,-49.69 131.89,-49.10 132.53,-48.29 132.94,-47.24">
        <request index="0"  response="000000000000" foes="000100010000" cont="0"/>
        <request index="1"  response="000000000000" foes="111100110000" cont="0"/>
        <request index="2"  response="000011000000" foes="110111110000" cont="1"/>
        <request index="3"  response="000010000000" foes="100010000000" cont="0"/>
        <request index="4"  response="000110000111" foes="100110000111" cont="0"/>
        <request index="5"  response="111110000110" foes="111110000110" cont="0"/>
        <request index="6"  response="000000000000" foes="010000000100" cont="0"/>
        <request index="7"  response="000000000000" foes="110000111100" cont="0"/>
        <request index="8"  response="000000000111" foes="110000110111" cont="1"/>
        <request index="9"  response="000000000010" foes="000000100010" cont="0"/>
        <request index="10" response="000111000110" foes="000111100110" cont="0"/>
        <request index="11" response="000110011110" foes="000110111110" cont="0"/>
    </junction>
    <junction id="J15" type="dead_end" x="-83.21" y="-54.13" incLanes="E12_0" intLanes="" shape="-83.21,-54.13 -83.19,-50.93 -83.21,-54.13"/>
    <junction id="J16" type="dead_end" x="-13.84" y="-130.90" incLanes="E13_0" intLanes="" shape="-13.84,-130.90 -17.04,-130.76 -13.84,-130.90"/>
    <junction id="J17" type="dead_end" x="220.14" y="28.79" incLanes="E14_0" intLanes="" shape="220.14,28.79 220.09,25.59 220.14,28.79"/>
    <junction id="J18" type="dead_end" x="-9.32" y="109.24" incLanes="E15_0" intLanes="" shape="-9.32,109.24 -6.12,109.21 -9.32,109.24"/>
    <junction id="J19" type="dead_end" x="144.20" y="112.12" incLanes="E16_0" intLanes="" shape="144.20,112.12 147.40,111.94 144.20,112.12"/>
    <junction id="J20" type="dead_end" x="132.71" y="-128.84" incLanes="E17_0" intLanes="" shape="132.71,-128.84 129.51,-128.70 132.71,-128.84"/>
    <junction id="J21" type="dead_end" x="215.22" y="-56.60" incLanes="E18_0" intLanes="" shape="215.22,-56.60 215.09,-59.80 215.22,-56.60"/>
    <junction id="J8" type="dead_end" x="-77.88" y="32.07" incLanes="-E6_0" intLanes="" shape="-77.88,32.07 -77.88,35.27 -77.88,32.07"/>
    <junction id="J9" type="priority" x="-10.14" y="32.07" incLanes="-E15_0 -E8_0 -E7_0 E6_0" intLanes=":J9_0_0 :J9_1_0 :J9_12_0 :J9_3_0 :J9_4_0 :J9_5_0 :J9_6_0 :J9_7_0 :J9_13_0 :J9_9_0 :J9_10_0 :J9_11_0" shape="-13.26,39.29 -6.86,39.23 -6.44,37.00 -5.89,36.21 -5.11,35.65 -4.10,35.30 -2.87,35.17 -2.96,28.77 -5.18,28.36 -5.96,27.81 -6.52,27.04 -6.86,26.05 -6.97,24.83 -13.37,24.86 -13.81,27.09 -14.36,27.87 -15.14,28.42 -16.13,28.76 -17.36,28.87 -17.36,35.27 -15.10,35.72 -14.31,36.28 -13.74,37.06 -13.39,38.06">
        <request index="0"  response="000000000000" foes="000100010000" cont="0"/>
        <request index="1"  response="000000000000" foes="111100110000" cont="0"/>
        <request index="2"  response="000111000000" foes="110111110000" cont="1"/>
        <request index="3"  response="000010000000" foes="100010000000" cont="0"/>
        <request index="4"  response="000110000111" foes="100110000111" cont="0"/>
        <request index="5"  response="111110000110" foes="111110000110" cont="0"/>
        <request index="6"  response="000000000000" foes="010000000100" cont="0"/>
        <request index="7"  response="000000000000" foes="110000111100" cont="0"/>
        <request index="8"  response="000000000011" foes="110000110111" cont="1"/>
        <request index="9"  response="000000000010" foes="000000100010" cont="0"/>
        <request index="10" response="000111000110" foes="000111100110" cont="0"/>
        <request index="11" response="000110011110" foes="000110111110" cont="0"/>
    </junction>

    <junction id=":J10_12_0" type="internal" x="-7.29" y="-53.53" incLanes=":J10_5_0 -E12_0" intLanes=":J10_1_0 :J10_2_0 :J10_7_0 :J10_8_0 :J10_9_0 :J10_10_0"/>
    <junction id=":J10_13_0" type="internal" x="-13.78" y="-55.45" incLanes=":J10_11_0 -E10_0" intLanes=":J10_1_0 :J10_2_0 :J10_3_0 :J10_4_0 :J10_7_0 :J10_8_0"/>
    <junction id=":J12_12_0" type="internal" x="142.97" y="30.92" incLanes=":J12_5_0 E8_0" intLanes=":J12_1_0 :J12_2_0 :J12_7_0 :J12_8_0 :J12_9_0 :J12_10_0"/>
    <junction id=":J12_13_0" type="internal" x="136.41" y="29.11" incLanes=":J12_11_0 -E14_0" intLanes=":J12_1_0 :J12_2_0 :J12_3_0 :J12_4_0 :J12_7_0 :J12_8_0"/>
    <junction id=":J13_12_0" type="internal" x="135.18" y="-50.07" incLanes=":J13_2_0 -E17_0" intLanes=":J13_4_0 :J13_5_0 :J13_6_0 :J13_7_0 :J13_10_0 :J13_11_0"/>
    <junction id=":J13_13_0" type="internal" x="136.81" y="-56.67" incLanes=":J13_8_0 E9_0" intLanes=":J13_0_0 :J13_1_0 :J13_4_0 :J13_5_0 :J13_10_0 :J13_11_0"/>
    <junction id=":J9_12_0" type="internal" x="-11.05" y="35.26" incLanes=":J9_2_0 -E7_0" intLanes=":J9_4_0 :J9_5_0 :J9_6_0 :J9_7_0 :J9_10_0 :J9_11_0"/>
    <junction id=":J9_13_0" type="internal" x="-9.19" y="28.83" incLanes=":J9_8_0 -E15_0" intLanes=":J9_0_0 :J9_1_0 :J9_4_0 :J9_5_0 :J9_10_0 :J9_11_0"/>

    <connection from="-E10" to="-E7" fromLane="0" toLane="0" via=":J10_3_0" dir="r" state="M"/>
    <connection from="-E10" to="E12" fromLane="0" toLane="0" via=":J10_4_0" dir="s" state="M"/>
    <connection from="-E10" to="E13" fromLane="0" toLane="0" via=":J10_5_0" dir="l" state="m"/>
    <connection from="-E12" to="E13" fromLane="0" toLane="0" via=":J10_9_0" dir="r" state="M"/>
    <connection from="-E12" to="E10" fromLane="0" toLane="0" via=":J10_10_0" dir="s" state="M"/>
    <connection from="-E12" to="-E7" fromLane="0" toLane="0" via=":J10_11_0" dir="l" state="m"/>
    <connection from="-E13" to="E10" fromLane="0" toLane="0" via=":J10_6_0" dir="r" state="m"/>
    <connection from="-E13" to="-E7" fromLane="0" toLane="0" via=":J10_7_0" dir="s" state="m"/>
    <connection from="-E13" to="E12" fromLane="0" toLane="0" via=":J10_8_0" dir="l" state="m"/>
    <connection from="-E14" to="E16" fromLane="0" toLane="0" via=":J12_3_0" dir="r" state="M"/>
    <connection from="-E14" to="-E8" fromLane="0" toLane="0" via=":J12_4_0" dir="s" state="M"/>
    <connection from="-E14" to="E9" fromLane="0" toLane="0" via=":J12_5_0" dir="l" state="m"/>
    <connection from="-E15" to="-E6" fromLane="0" toLane="0" via=":J9_0_0" dir="r" state="M"/>
    <connection from="-E15" to="E7" fromLane="0" toLane="0" via=":J9_1_0" dir="s" state="M"/>
    <connection from="-E15" to="E8" fromLane="0" toLane="0" via=":J9_2_0" dir="l" state="m"/>
    <connection from="-E16" to="-E8" fromLane="0" toLane="0" via=":J12_0_0" dir="r" state="m"/>
    <connection from="-E16" to="E9" fromLane="0" toLane="0" via=":J12_1_0" dir="s" state="m"/>
    <connection from="-E16" to="E14" fromLane="0" toLane="0" via=":J12_2_0" dir="l" state="m"/>
    <connection from="-E17" to="E18" fromLane="0" toLane="0" via=":J13_6_0" dir="r" state="M"/>
    <connection from="-E17" to="-E9" fromLane="0" toLane="0" via=":J13_7_0" dir="s" state="M"/>
    <connection from="-E17" to="-E10" fromLane="0" toLane="0" via=":J13_8_0" dir="l" state="m"/>
    <connection from="-E18" to="-E9" fromLane="0" toLane="0" via=":J13_3_0" dir="r" state="m"/>
    <connection from="-E18" to="-E10" fromLane="0" toLane="0" via=":J13_4_0" dir="s" state="m"/>
    <connection from="-E18" to="E17" fromLane="0" toLane="0" via=":J13_5_0" dir="l" state="m"/>
    <connection from="-E7" to="E8" fromLane="0" toLane="0" via=":J9_6_0" dir="r" state="M"/>
    <connection from="-E7" to="E15" fromLane="0" toLane="0" via=":J9_7_0" dir="s" state="M"/>
    <connection from="-E7" to="-E6" fromLane="0" toLane="0" via=":J9_8_0" dir="l" state="m"/>
    <connection from="-E8" to="E15" fromLane="0" toLane="0" via=":J9_3_0" dir="r" state="m"/>
    <connection from="-E8" to="-E6" fromLane="0" toLane="0" via=":J9_4_0" dir="s" state="m"/>
    <connection from="-E8" to="E7" fromLane="0" toLane="0" via=":J9_5_0" dir="l" state="m"/>
    <connection from="-E9" to="E14" fromLane="0" toLane="0" via=":J12_6_0" dir="r" state="m"/>
    <connection from="-E9" to="E16" fromLane="0" toLane="0" via=":J12_7_0" dir="s" state="m"/>
    <connection from="-E9" to="-E8" fromLane="0" toLane="0" via=":J12_8_0" dir="l" state="m"/>
    <connection from="E10" to="E17" fromLane="0" toLane="0" via=":J13_9_0" dir="r" state="m"/>
    <connection from="E10" to="E18" fromLane="0" toLane="0" via=":J13_10_0" dir="s" state="m"/>
    <connection from="E10" to="-E9" fromLane="0" toLane="0" via=":J13_11_0" dir="l" state="m"/>
    <connection from="E6" to="E7" fromLane="0" toLane="0" via=":J9_9_0" dir="r" state="m"/>
    <connection from="E6" to="E8" fromLane="0" toLane="0" via=":J9_10_0" dir="s" state="m"/>
    <connection from="E6" to="E15" fromLane="0" toLane="0" via=":J9_11_0" dir="l" state="m"/>
    <connection from="E7" to="E12" fromLane="0" toLane="0" via=":J10_0_0" dir="r" state="m"/>
    <connection from="E7" to="E13" fromLane="0" toLane="0" via=":J10_1_0" dir="s" state="m"/>
    <connection from="E7" to="E10" fromLane="0" toLane="0" via=":J10_2_0" dir="l" state="m"/>
    <connection from="E8" to="E9" fromLane="0" toLane="0" via=":J12_9_0" dir="r" state="M"/>
    <connection from="E8" to="E14" fromLane="0" toLane="0" via=":J12_10_0" dir="s" state="M"/>
    <connection from="E8" to="E16" fromLane="0" toLane="0" via=":J12_11_0" dir="l" state="m"/>
    <connection from="E9" to="-E10" fromLane="0" toLane="0" via=":J13_0_0" dir="r" state="M"/>
    <connection from="E9" to="E17" fromLane="0" toLane="0" via=":J13_1_0" dir="s" state="M"/>
    <connection from="E9" to="E18" fromLane="0" toLane="0" via=":J13_2_0" dir="l" state="m"/>

    <connection from=":J10_0" to="E12" fromLane="0" toLane="0" dir="r" state="M"/>
    <connection from=":J10_1" to="E13" fromLane="0" toLane="0" dir="s" state="M"/>
    <connection from=":J10_2" to="E10" fromLane="0" toLane="0" dir="l" state="M"/>
    <connection from=":J10_3" to="-E7" fromLane="0" toLane="0" dir="r" state="M"/>
    <connection from=":J10_4" to="E12" fromLane="0" toLane="0" dir="s" state="M"/>
    <connection from=":J10_5" to="E13" fromLane="0" toLane="0" via=":J10_12_0" dir="l" state="m"/>
    <connection from=":J10_12" to="E13" fromLane="0" toLane="0" dir="l" state="M"/>
    <connection from=":J10_6" to="E10" fromLane="0" toLane="0" dir="r" state="M"/>
    <connection from=":J10_7" to="-E7" fromLane="0" toLane="0" dir="s" state="M"/>
    <connection from=":J10_8" to="E12" fromLane="0" toLane="0" dir="l" state="M"/>
    <connection from=":J10_9" to="E13" fromLane="0" toLane="0" dir="r" state="M"/>
    <connection from=":J10_10" to="E10" fromLane="0" toLane="0" dir="s" state="M"/>
    <connection from=":J10_11" to="-E7" fromLane="0" toLane="0" via=":J10_13_0" dir="l" state="m"/>
    <connection from=":J10_13" to="-E7" fromLane="0" toLane="0" dir="l" state="M"/>
    <connection from=":J12_0" to="-E8" fromLane="0" toLane="0" dir="r" state="M"/>
    <connection from=":J12_1" to="E9" fromLane="0" toLane="0" dir="s" state="M"/>
    <connection from=":J12_2" to="E14" fromLane="0" toLane="0" dir="l" state="M"/>
    <connection from=":J12_3" to="E16" fromLane="0" toLane="0" dir="r" state="M"/>