<configuration>
    <input>
        <net-file value="map.net.xml"/>
        <route-files value="car.rou.xml"/>
	<additional-files value="edgeData.add.xml"/>
    </input>


    <output>
    	<tripinfo-output value="tripinfo.xml"/>
	
    </output>
    <time>
        <begin value="0"/>
        <end value="500"/>
    </time>
</configuration>