<configuration>
    <input>
        <net-file value="grid.net.xml"/>
        <route-files value="grid.rou.xml"/>
    </input>

    <output>
    	<tripinfo-output value="tripinfo02.xml"/>
	
    </output>
    <time>
        <begin value="0"/>
        <end value="500"/>
    </time>
</configuration>