<?xml version="1.0" encoding="UTF-8"?>

<!-- generated on 2026-04-20 18:55:00.126649 by Eclipse SUMO randomTrips.py v1_26_0+0000-fa7df22d7f1
<configuration>
    <net-file value="map.net.xml"/>
    <route-file value="car.rou.xml"/>
    <random value="True"/>
    <end value="200.0"/>
    <period value="2.0"/>
</configuration>
-->

<routes xmlns:xsi="http://www.w3.org/2001/XMLSchema-instance" xsi:noNamespaceSchemaLocation="http://sumo.dlr.de/xsd/routes_file.xsd">
    <trip id="0" depart="0.00" from="-E21" to="-E3"/>
    <trip id="1" depart="2.00" from="E8" to="E20"/>
    <trip id="2" depart="4.00" from="-E19" to="E20"/>
    <trip id="3" depart="6.00" from="E1" to="-E9"/>
    <trip id="4" depart="8.00" from="-E17" to="-E5"/>
    <trip id="5" depart="10.00" from="E8" to="E7"/>
    <trip id="6" depart="12.00" from="-E2" to="E14"/>
    <trip id="7" depart="14.00" from="E4" to="-E10"/>
    <trip id="8" depart="16.00" from="-E0" to="E22"/>
    <trip id="9" depart="18.00" from="-E11" to="E3"/>
    <trip id="10" depart="20.00" from="-E17" to="-E3"/>
    <trip id="11" depart="22.00" from="-E13" to="E12"/>
    <trip id="12" depart="24.00" from="-E13" to="E20"/>
    <trip id="13" depart="26.00" from="-E20" to="-E4"/>
    <trip id="14" depart="28.00" from="-E19" to="E12"/>
    <trip id="15" depart="30.00" from="-E16" to="-E11"/>
    <trip id="16" depart="32.00" from="-E6" to="-E2"/>
    <trip id="17" depart="34.00" from="-E18" to="-E6"/>
    <trip id="18" depart="36.00" from="-E17" to="E12"/>
    <trip id="19" depart="38.00" from="-E10" to="E23"/>
    <trip id="20" depart="40.00" from="-E13" to="-E2"/>
    <trip id="21" depart="42.00" from="E4" to="E13"/>
    <trip id="22" depart="44.00" from="-E11" to="E7"/>
    <trip id="23" depart="46.00" from="-E4" to="E18"/>
    <trip id="24" depart="48.00" from="E5" to="E23"/>
    <trip id="25" depart="50.00" from="-E6" to="-E8"/>
    <trip id="26" depart="52.00" from="-E1" to="E5"/>
    <trip id="27" depart="54.00" from="-E1" to="E13"/>
    <trip id="28" depart="56.00" from="E7" to="-E10"/>
    <trip id="29" depart="58.00" from="E11" to="E12"/>
    <trip id="30" depart="60.00" from="-E18" to="E3"/>
    <trip id="31" depart="62.00" from="-E16" to="-E0"/>
    <trip id="32" depart="64.00" from="-E14" to="E11"/>
    <trip id="33" depart="66.00" from="-E1" to="-E10"/>
    <trip id="34" depart="68.00" from="E10" to="E6"/>
    <trip id="35" depart="70.00" from="E8" to="E15"/>
    <trip id="36" depart="72.00" from="E5" to="-E11"/>
    <trip id="37" depart="74.00" from="-E12" to="E12"/>
    <trip id="38" depart="76.00" from="E11" to="-E7"/>
    <trip id="39" depart="78.00" from="-E8" to="-E3"/>
    <trip id="40" depart="80.00" from="-E16" to="-E5"/>
    <trip id="41" depart="82.00" from="-E9" to="-E8"/>
    <trip id="42" depart="84.00" from="E5" to="E4"/>
    <trip id="43" depart="86.00" from="E1" to="-E5"/>
    <trip id="44" depart="88.00" from="-E14" to="E7"/>
    <trip id="45" depart="90.00" from="-E7" to="E6"/>
    <trip id="46" depart="92.00" from="-E22" to="-E2"/>
    <trip id="47" depart="94.00" from="-E19" to="E8"/>
    <trip id="48" depart="96.00" from="-E15" to="E17"/>
    <trip id="49" depart="98.00" from="-E0" to="E15"/>
    <trip id="50" depart="100.00" from="-E16" to="E19"/>
    <trip id="51" depart="102.00" from="-E19" to="E13"/>
    <trip id="52" depart="104.00" from="E9" to="E23"/>
    <trip id="53" depart="106.00" from="-E14" to="E5"/>
    <trip id="54" depart="108.00" from="-E18" to="E13"/>
    <trip id="55" depart="110.00" from="-E18" to="E1"/>
    <trip id="56" depart="112.00" from="-E17" to="E18"/>
    <trip id="57" depart="114.00" from="-E10" to="-E6"/>
    <trip id="58" depart="116.00" from="-E11" to="E10"/>
    <trip id="59" depart="118.00" from="E9" to="E13"/>
    <trip id="60" depart="120.00" from="E9" to="-E9"/>
    <trip id="61" depart="122.00" from="E1" to="-E6"/>
    <trip id="62" depart="124.00" from="-E17" to="E9"/>
    <trip id="63" depart="126.00" from="E3" to="-E5"/>
    <trip id="64" depart="128.00" from="-E17" to="-E10"/>
    <trip id="65" depart="130.00" from="-E20" to="-E7"/>
    <trip id="66" depart="132.00" from="-E14" to="E15"/>
    <trip id="67" depart="134.00" from="E3" to="-E5"/>
    <trip id="68" depart="136.00" from="-E22" to="-E2"/>
    <trip id="69" depart="138.00" from="-E1" to="-E10"/>
    <trip id="70" depart="140.00" from="-E20" to="E7"/>
    <trip id="71" depart="142.00" from="-E7" to="-E7"/>
    <trip id="72" depart="144.00" from="E8" to="E14"/>
    <trip id="73" depart="146.00" from="-E8" to="E4"/>
    <trip id="74" depart="148.00" from="-E13" to="E2"/>
    <trip id="75" depart="150.00" from="-E2" to="E7"/>
    <trip id="76" depart="152.00" from="E3" to="-E4"/>
    <trip id="77" depart="154.00" from="E10" to="-E11"/>
    <trip id="78" depart="156.00" from="-E19" to="E18"/>
    <trip id="79" depart="158.00" from="-E6" to="E22"/>
    <trip id="80" depart="160.00" from="-E8" to="E15"/>
    <trip id="81" depart="162.00" from="E11" to="E4"/>
    <trip id="82" depart="164.00" from="-E16" to="E22"/>
    <trip id="83" depart="166.00" from="-E12" to="E1"/>
    <trip id="84" depart="168.00" from="-E2" to="-E9"/>
    <trip id="85" depart="170.00" from="-E23" to="-E4"/>
    <trip id="86" depart="172.00" from="-E23" to="-E2"/>
    <trip id="87" depart="174.00" from="-E9" to="E17"/>
    <trip id="88" depart="176.00" from="E10" to="E18"/>
    <trip id="89" depart="178.00" from="-E22" to="E12"/>
    <trip id="90" depart="180.00" from="-E11" to="-E11"/>
    <trip id="91" depart="182.00" from="E3" to="E16"/>
    <trip id="92" depart="184.00" from="-E4" to="E8"/>
    <trip id="93" depart="186.00" from="-E15" to="E2"/>
    <trip id="94" depart="188.00" from="E8" to="E15"/>
    <trip id="95" depart="190.00" from="-E6" to="-E10"/>
    <trip id="96" depart="192.00" from="-E23" to="E13"/>
    <trip id="97" depart="194.00" from="-E16" to="-E9"/>
    <trip id="98" depart="196.00" from="E3" to="E20"/>
    <trip id="99" depart="198.00" from="-E20" to="E5"/>
</routes>
